@<TRIPOS>MOLECULE
9SL
   38    40     1     0     0
SMALL
resp


@<TRIPOS>ATOM
      1 C1           0.0000     0.0000     5.3520 c3         1 9SL       0.638467
      2 C2          -1.6750     1.5260     6.2510 c3         1 9SL       0.059940
      3 C3          -0.8190    -1.0690     3.1130 c3         1 9SL       0.496426
      4 N1          -2.0440    -1.2600     3.8960 n2         1 9SL      -1.081738
      5 C4          -2.3750    -0.5420     4.9840 c2         1 9SL       1.087215
      6 N2          -3.5210    -0.5800     5.6250 nh         1 9SL      -1.129042
      7 N3          -1.4230     0.3550     5.3980 nh         1 9SL      -0.551469
      8 N4           0.4620    -0.8540     6.4420 n2         1 9SL      -1.039513
      9 C5           0.9650    -2.0220     5.9970 c2         1 9SL       1.144455
     10 N5           0.8950    -2.0330     4.6440 nh         1 9SL      -0.931864
     11 C6           0.3620    -0.8130     4.0630 c3         1 9SL       0.318680
     12 N6           1.4730    -3.0070     6.6540 nh         1 9SL      -1.126679
     13 C7           0.6630     1.3900     5.5790 c3         1 9SL       0.693103
     14 C8          -0.2700     2.0180     6.5970 c3         1 9SL      -0.064334
     15 H1          -4.2500    -1.1910     5.3130 hn         1 9SL       0.468744
     16 H2          -3.6640    -0.0010     6.4280 hn         1 9SL       0.468744
     17 H3           1.1840    -2.8160     4.0930 hn         1 9SL       0.392059
     18 H4           1.8050    -3.8140     6.1670 hn         1 9SL       0.472925
     19 H5           1.5320    -2.9650     7.6520 hn         1 9SL       0.472925
     20 C9          -1.0310     0.0830     2.1470 c3         1 9SL       0.191878
     21 O1           0.1560     0.1950     1.3260 os         1 9SL      -0.560213
     22 C10          0.0000     0.0000     0.0000 c          1 9SL       1.110739
     23 O2          -0.6830    -0.8930    -0.4590 o          1 9SL      -0.694225
     24 N7           0.6640     0.9170    -0.7050 n          1 9SL      -1.070289
     25 H6           1.1920     1.6240    -0.2350 hn         1 9SL       0.444035
     26 H7           0.6330     0.8990    -1.7050 hn         1 9SL       0.444035
     27 O3           1.9950     1.3090     6.0060 oh         1 9SL      -0.765013
     28 H8           2.5910     1.1650     5.2160 ho         1 9SL       0.414753
     29 O4           0.6450     2.0320     4.3350 oh         1 9SL      -0.765013
     30 H9           1.0010     1.4140     3.6360 ho         1 9SL       0.414753
     31 H10         -2.2110     1.2480     7.1350 h1         1 9SL       0.015215
     32 H11         -2.2740     2.2720     5.7720 h1         1 9SL       0.015215
     33 H12         -0.5920    -1.9450     2.5440 h1         1 9SL      -0.008749
     34 H13          1.0370    -0.2920     3.4170 h1         1 9SL      -0.134035
     35 H14         -0.2260     3.0860     6.5310 hc         1 9SL       0.063067
     36 H15          0.0030     1.7470     7.5960 hc         1 9SL       0.063067
     37 H16         -1.8830    -0.1110     1.5290 h1         1 9SL       0.015868
     38 H17         -1.2030     0.9930     2.6820 h1         1 9SL       0.015868
@<TRIPOS>BOND
     1     1     7 1   
     2     1     8 1   
     3     1    11 1   
     4     1    13 1   
     5     2     7 1   
     6     2    14 1   
     7     2    31 1   
     8     2    32 1   
     9     3     4 1   
    10     3    11 1   
    11     3    20 1   
    12     3    33 1   
    13     4     5 2   
    14     5     6 1   
    15     5     7 1   
    16     6    15 1   
    17     6    16 1   
    18     8     9 2   
    19     9    10 1   
    20     9    12 1   
    21    10    11 1   
    22    10    17 1   
    23    11    34 1   
    24    12    18 1   
    25    12    19 1   
    26    13    14 1   
    27    13    27 1   
    28    13    29 1   
    29    14    35 1   
    30    14    36 1   
    31    20    21 1   
    32    20    37 1   
    33    20    38 1   
    34    21    22 1   
    35    22    23 2   
    36    22    24 1   
    37    24    25 1   
    38    24    26 1   
    39    27    28 1   
    40    29    30 1   
@<TRIPOS>SUBSTRUCTURE
     1 9SL         1 TEMP              0 ****  ****    0 ROOT
