@<TRIPOS>MOLECULE
ANA
   27    28     1     0     0
SMALL
resp


@<TRIPOS>ATOM
      1 C1          -0.4220     1.6720     2.9300 c3         1 ANA      -0.124554
      2 C2           1.0450     1.1560     2.9570 c3         1 ANA       0.374560
      3 C3           1.0900    -0.3650     3.2410 c3         1 ANA      -0.095550
      4 C4           1.8020    -1.1760     2.1490 c3         1 ANA       0.308742
      5 C5           1.0110    -1.2710     0.8890 c2         1 ANA      -0.224976
      6 C6           0.4570    -0.2420     0.2320 ce         1 ANA      -0.222442
      7 C7           0.4470     1.1970     0.6720 c3         1 ANA       0.397560
      8 N1           1.5790     1.4650     1.6000 n3         1 ANA      -0.775195
      9 H1           1.8480     2.4540     1.5460 hn         1 ANA       0.302051
     10 C8          -0.8660     1.4930     1.4690 c3         1 ANA       0.092241
     11 C9          -0.2360    -0.5130    -1.0500 c          1 ANA       0.649417
     12 C10         -0.9000    -1.8330    -1.2360 c3         1 ANA      -0.274582
     13 O1          -0.2790     0.3380    -1.9210 o          1 ANA      -0.582855
     14 H2          -1.0380     1.0940     3.5860 hc         1 ANA       0.011392
     15 H3          -0.5020     2.6870     3.2580 hc         1 ANA       0.011392
     16 H4           1.6230     1.6170     3.7310 h1         1 ANA      -0.019130
     17 H5           1.6040    -0.5210     4.1670 hc         1 ANA      -0.000995
     18 H6           0.0770    -0.7070     3.2740 hc         1 ANA      -0.000995
     19 H7           2.7380    -0.7060     1.9300 hc         1 ANA      -0.054893
     20 H8           1.9340    -2.1700     2.5220 hc         1 ANA      -0.054893
     21 H9           0.8780    -2.2120     0.4870 ha         1 ANA       0.116851
     22 H10          0.5220     1.8080    -0.2030 h1         1 ANA       0.003435
     23 H11         -1.5500     0.6740     1.3830 hc         1 ANA      -0.033725
     24 H12         -1.3720     2.3590     1.0970 hc         1 ANA      -0.033725
     25 H13         -1.3510    -1.8720    -2.2060 hc         1 ANA       0.076956
     26 H14         -1.6530    -1.9620    -0.4870 hc         1 ANA       0.076956
     27 H15         -0.1730    -2.6130    -1.1490 hc         1 ANA       0.076956
@<TRIPOS>BOND
     1     1     2 1   
     2     1    10 1   
     3     1    14 1   
     4     1    15 1   
     5     2     3 1   
     6     2     8 1   
     7     2    16 1   
     8     3     4 1   
     9     3    17 1   
    10     3    18 1   
    11     4     5 1   
    12     4    19 1   
    13     4    20 1   
    14     5     6 2   
    15     5    21 1   
    16     6     7 1   
    17     6    11 1   
    18     7     8 1   
    19     7    10 1   
    20     7    22 1   
    21     8     9 1   
    22    10    23 1   
    23    10    24 1   
    24    11    12 1   
    25    11    13 2   
    26    12    25 1   
    27    12    26 1   
    28    12    27 1   
@<TRIPOS>SUBSTRUCTURE
     1 ANA         1 TEMP              0 ****  ****    0 ROOT
